Version 4
SHEET 1 1232 1264
WIRE 48 96 -64 96
WIRE 320 96 112 96
WIRE 512 96 320 96
WIRE 688 96 592 96
WIRE -64 160 -64 96
WIRE -160 272 -160 240
WIRE -160 272 -240 272
WIRE 384 272 336 272
WIRE 416 272 416 240
WIRE 688 288 688 96
WIRE 688 288 448 288
WIRE 752 288 688 288
WIRE -240 304 -240 272
WIRE -160 304 -160 272
WIRE 320 304 320 96
WIRE 384 304 320 304
WIRE 416 336 416 304
WIRE 32 464 -64 464
WIRE 336 464 336 272
WIRE 336 464 112 464
WIRE 512 464 336 464
WIRE 688 464 688 288
WIRE 688 464 592 464
WIRE -64 528 -64 464
FLAG -64 160 0
FLAG -64 528 0
FLAG 752 288 Vout
FLAG -160 160 Vdd
FLAG 416 240 Vdd
FLAG -160 384 Vee
FLAG 416 336 Vee
FLAG -240 304 0
SYMBOL res 608 80 R90
WINDOW 0 0 56 VBottom 2
WINDOW 3 32 56 VTop 2
SYMATTR InstName R1
SYMATTR Value 274k
SYMBOL res 608 448 R90
WINDOW 0 0 56 VBottom 2
WINDOW 3 32 56 VTop 2
SYMATTR InstName R2
SYMATTR Value 10k
SYMBOL res 128 448 R90
WINDOW 0 0 56 VBottom 2
WINDOW 3 32 56 VTop 2
SYMATTR InstName R3
SYMATTR Value 10k
SYMBOL cap 112 80 R90
WINDOW 0 0 32 VBottom 2
WINDOW 3 32 32 VTop 2
SYMATTR InstName C1
SYMATTR Value 68p
SYMATTR SpiceLine IC = 1
SYMBOL voltage -160 144 R0
SYMATTR InstName V1
SYMATTR Value 5
SYMBOL voltage -160 288 R0
WINDOW 123 0 0 Left 2
WINDOW 39 0 0 Left 2
SYMATTR InstName V2
SYMATTR Value 5
SYMBOL AutoGenerated\\LMX58_LM2904 416 288 R0
WINDOW 0 28 -16 Bottom 2
WINDOW 3 115 15 Top 2
SYMATTR InstName U1
TEXT -88 552 Left 2 !.tran 1m
